
 OpenBabel01072214533D

 30 32  0  0  1  0  0  0  0  0999 V2000
   30.8820   -0.7250   26.6510 C   0  0  2  0  0  0  0  0  0  0  0  0
   29.4750   -1.1940   26.9320 C   0  0  0  0  0  0  0  0  0  0  0  0
   28.3830   -0.8570   26.0730 C   0  0  0  0  0  0  0  0  0  0  0  0
   27.0770   -1.2620   26.3860 C   0  0  0  0  0  0  0  0  0  0  0  0
   26.8510   -2.0080   27.5590 C   0  0  0  0  0  0  0  0  0  0  0  0
   27.9240   -2.3490   28.4140 C   0  0  0  0  0  0  0  0  0  0  0  0
   29.2100   -1.9370   28.0860 C   0  0  0  0  0  0  0  0  0  0  0  0
   25.5710   -2.3720   27.8520 O   0  0  0  0  0  0  0  0  0  0  0  0
   25.3050   -3.0930   27.2780 H   0  0  0  0  0  0  0  0  0  0  0  0
   31.6200   -1.5970   25.7320 C   0  0  0  0  0  0  0  0  0  0  0  0
   31.6470   -1.3570   24.3600 C   0  0  0  0  0  0  0  0  0  0  0  0
   32.3490   -2.1440   23.4910 C   0  0  0  0  0  0  0  0  0  0  0  0
   33.0680   -3.2240   23.9790 C   0  0  0  0  0  0  0  0  0  0  0  0
   33.0610   -3.4980   25.3580 C   0  0  0  0  0  0  0  0  0  0  0  0
   32.3510   -2.6950   26.2050 C   0  0  0  0  0  0  0  0  0  0  0  0
   33.8240   -4.0380   23.1860 O   0  0  0  0  0  0  0  0  0  0  0  0
   33.3470   -4.4200   21.9000 C   0  0  0  0  0  0  0  0  0  0  0  0
   34.4960   -4.2410   20.9450 C   0  0  0  0  0  0  0  0  0  0  0  0
   35.1520   -2.9680   21.0630 N   0  0  0  0  0  0  0  0  0  0  0  0
   36.6080   -3.1010   21.0070 C   0  0  0  0  0  0  0  0  0  0  0  0
   34.7310   -2.0950   19.9600 C   0  0  0  0  0  0  0  0  0  0  0  0
   31.4350    0.3950   27.2030 C   0  0  2  0  0  0  0  0  0  0  0  0
   32.8930    0.5400   27.4970 C   0  0  0  0  0  0  0  0  0  0  0  0
   33.7680    1.1590   26.6120 C   0  0  0  0  0  0  0  0  0  0  0  0
   35.1390    1.2490   26.8750 C   0  0  0  0  0  0  0  0  0  0  0  0
   35.6610    0.7180   28.0300 C   0  0  0  0  0  0  0  0  0  0  0  0
   34.8160    0.0960   28.9280 C   0  0  0  0  0  0  0  0  0  0  0  0
   33.4460    0.0020   28.6790 C   0  0  0  0  0  0  0  0  0  0  0  0
   30.6150    1.6120   27.5770 C   0  0  0  0  0  0  0  0  0  0  0  0
   30.2420    1.6220   29.0340 C   0  0  0  0  0  0  0  0  0  0  0  0
  1  2  1  0  0  0  0
  1 22  1  1  0  0  0
  2  7  2  0  0  0  0
  3  4  2  0  0  0  0
  3  2  1  0  0  0  0
  4  5  1  0  0  0  0
  5  8  1  0  0  0  0
  5  6  2  0  0  0  0
  7  6  1  0  0  0  0
  9  8  1  0  0  0  0
 10 15  1  0  0  0  0
 10  1  1  0  0  0  0
 11 10  2  0  0  0  0
 12 13  2  0  0  0  0
 12 11  1  0  0  0  0
 13 14  1  0  0  0  0
 14 15  2  0  0  0  0
 16 13  1  0  0  0  0
 17 16  1  0  0  0  0
 18 19  1  0  0  0  0
 18 17  1  0  0  0  0
 20 19  1  0  0  0  0
 21 19  1  0  0  0  0
 22 23  1  0  0  0  0
 22 29  1  1  0  0  0
 23 28  2  0  0  0  0
 24 25  2  0  0  0  0
 24 23  1  0  0  0  0
 25 26  1  0  0  0  0
 26 27  2  0  0  0  0
 28 27  1  0  0  0  0
 29 30  1  0  0  0  0
M  END
>  <minimizedAffinity>
-9.73164082

$$$$

 OpenBabel01072214533D

 30 32  0  0  1  0  0  0  0  0999 V2000
   31.8030   -0.5220   26.4370 C   0  0  2  0  0  0  0  0  0  0  0  0
   33.0940    0.0770   26.9400 C   0  0  0  0  0  0  0  0  0  0  0  0
   33.8350    1.0270   26.1710 C   0  0  0  0  0  0  0  0  0  0  0  0
   35.0580    1.5280   26.6390 C   0  0  0  0  0  0  0  0  0  0  0  0
   35.5510    1.0850   27.8810 C   0  0  0  0  0  0  0  0  0  0  0  0
   34.8260    0.1490   28.6520 C   0  0  0  0  0  0  0  0  0  0  0  0
   33.6170   -0.3360   28.1690 C   0  0  0  0  0  0  0  0  0  0  0  0
   36.7510    1.5710   28.3060 O   0  0  0  0  0  0  0  0  0  0  0  0
   36.6410    2.4750   28.6110 H   0  0  0  0  0  0  0  0  0  0  0  0
   31.9920   -1.5250   25.3840 C   0  0  0  0  0  0  0  0  0  0  0  0
   31.7280   -1.2390   24.0470 C   0  0  0  0  0  0  0  0  0  0  0  0
   31.9220   -2.1530   23.0500 C   0  0  0  0  0  0  0  0  0  0  0  0
   32.4010   -3.4140   23.3650 C   0  0  0  0  0  0  0  0  0  0  0  0
   32.6750   -3.7390   24.7050 C   0  0  0  0  0  0  0  0  0  0  0  0
   32.4730   -2.8070   25.6830 C   0  0  0  0  0  0  0  0  0  0  0  0
   32.6570   -4.3730   22.4270 O   0  0  0  0  0  0  0  0  0  0  0  0
   33.2530   -4.0100   21.1850 C   0  0  0  0  0  0  0  0  0  0  0  0
   34.7420   -4.0710   21.3910 C   0  0  0  0  0  0  0  0  0  0  0  0
   35.4130   -2.8300   21.1210 N   0  0  0  0  0  0  0  0  0  0  0  0
   36.8280   -3.0360   20.8090 C   0  0  0  0  0  0  0  0  0  0  0  0
   34.7840   -2.1710   19.9710 C   0  0  0  0  0  0  0  0  0  0  0  0
   30.5680   -0.1630   26.8960 C   0  0  1  0  0  0  0  0  0  0  0  0
   29.4050   -1.1000   26.9640 C   0  0  0  0  0  0  0  0  0  0  0  0
   29.3520   -2.1480   27.8750 C   0  0  0  0  0  0  0  0  0  0  0  0
   28.2810   -3.0480   27.9000 C   0  0  0  0  0  0  0  0  0  0  0  0
   27.2420   -2.9150   27.0100 C   0  0  0  0  0  0  0  0  0  0  0  0
   27.2680   -1.8820   26.0930 C   0  0  0  0  0  0  0  0  0  0  0  0
   28.3290   -0.9770   26.0600 C   0  0  0  0  0  0  0  0  0  0  0  0
   30.2530    1.2350   27.3870 C   0  0  0  0  0  0  0  0  0  0  0  0
   30.2080    1.3130   28.8890 C   0  0  0  0  0  0  0  0  0  0  0  0
  1 22  1  6  0  0  0
  1  2  1  0  0  0  0
  2  7  2  0  0  0  0
  3  4  2  0  0  0  0
  3  2  1  0  0  0  0
  4  5  1  0  0  0  0
  5  8  1  0  0  0  0
  5  6  2  0  0  0  0
  7  6  1  0  0  0  0
  8  9  1  0  0  0  0
 10 15  1  0  0  0  0
 10  1  1  0  0  0  0
 11 10  2  0  0  0  0
 12 13  2  0  0  0  0
 12 11  1  0  0  0  0
 13 14  1  0  0  0  0
 14 15  2  0  0  0  0
 16 13  1  0  0  0  0
 17 18  1  0  0  0  0
 17 16  1  0  0  0  0
 19 18  1  0  0  0  0
 20 19  1  0  0  0  0
 21 19  1  0  0  0  0
 22 23  1  0  0  0  0
 22 29  1  1  0  0  0
 23 24  2  0  0  0  0
 24 25  1  0  0  0  0
 26 25  2  0  0  0  0
 27 26  1  0  0  0  0
 28 27  2  0  0  0  0
 28 23  1  0  0  0  0
 29 30  1  0  0  0  0
M  END
>  <minimizedAffinity>
-8.90001965

$$$$

 OpenBabel01072214533D

 30 32  0  0  1  0  0  0  0  0999 V2000
   32.0640   -0.9480   26.8980 C   0  0  2  0  0  0  0  0  0  0  0  0
   33.2970   -0.1230   27.1750 C   0  0  0  0  0  0  0  0  0  0  0  0
   34.3760   -0.6230   27.9680 C   0  0  0  0  0  0  0  0  0  0  0  0
   35.4860    0.1840   28.2540 C   0  0  0  0  0  0  0  0  0  0  0  0
   35.5290    1.4980   27.7500 C   0  0  0  0  0  0  0  0  0  0  0  0
   34.4700    2.0020   26.9620 C   0  0  0  0  0  0  0  0  0  0  0  0
   33.3780    1.1870   26.6910 C   0  0  0  0  0  0  0  0  0  0  0  0
   36.6100    2.2690   28.0580 O   0  0  0  0  0  0  0  0  0  0  0  0
   37.3640    1.9870   27.5360 H   0  0  0  0  0  0  0  0  0  0  0  0
   32.1350   -1.7080   25.6460 C   0  0  0  0  0  0  0  0  0  0  0  0
   31.7070   -1.1660   24.4370 C   0  0  0  0  0  0  0  0  0  0  0  0
   31.7890   -1.8500   23.2570 C   0  0  0  0  0  0  0  0  0  0  0  0
   32.3170   -3.1310   23.2470 C   0  0  0  0  0  0  0  0  0  0  0  0
   32.7560   -3.7120   24.4490 C   0  0  0  0  0  0  0  0  0  0  0  0
   32.6630   -3.0060   25.6160 C   0  0  0  0  0  0  0  0  0  0  0  0
   32.4680   -3.8690   22.1080 O   0  0  0  0  0  0  0  0  0  0  0  0
   33.1360   -3.3090   20.9820 C   0  0  0  0  0  0  0  0  0  0  0  0
   32.3940   -3.7860   19.7630 C   0  0  0  0  0  0  0  0  0  0  0  0
   31.3720   -2.8790   19.3170 N   0  0  0  0  0  0  0  0  0  0  0  0
   31.4950   -2.5850   17.8880 C   0  0  0  0  0  0  0  0  0  0  0  0
   30.0510   -3.4750   19.5480 C   0  0  0  0  0  0  0  0  0  0  0  0
   30.9720   -0.9820   27.7160 C   0  0  1  0  0  0  0  0  0  0  0  0
   29.6190   -1.4400   27.2750 C   0  0  0  0  0  0  0  0  0  0  0  0
   28.7210   -0.5890   26.6410 C   0  0  0  0  0  0  0  0  0  0  0  0
   27.4390   -1.0140   26.2740 C   0  0  0  0  0  0  0  0  0  0  0  0
   27.0320   -2.3000   26.5360 C   0  0  0  0  0  0  0  0  0  0  0  0
   27.9030   -3.1670   27.1660 C   0  0  0  0  0  0  0  0  0  0  0  0
   29.1840   -2.7570   27.5350 C   0  0  0  0  0  0  0  0  0  0  0  0
   31.0250   -0.5550   29.1680 C   0  0  0  0  0  0  0  0  0  0  0  0
   30.5700    0.8660   29.3600 C   0  0  0  0  0  0  0  0  0  0  0  0
  1  2  1  0  0  0  0
  1 22  1  6  0  0  0
  2  3  2  0  0  0  0
  3  4  1  0  0  0  0
  5  8  1  0  0  0  0
  5  4  2  0  0  0  0
  6  5  1  0  0  0  0
  7  6  2  0  0  0  0
  7  2  1  0  0  0  0
  9  8  1  0  0  0  0
 10  1  1  0  0  0  0
 11 10  2  0  0  0  0
 12 11  1  0  0  0  0
 13 12  2  0  0  0  0
 13 14  1  0  0  0  0
 14 15  2  0  0  0  0
 15 10  1  0  0  0  0
 16 13  1  0  0  0  0
 17 16  1  0  0  0  0
 18 17  1  0  0  0  0
 19 21  1  0  0  0  0
 19 18  1  0  0  0  0
 20 19  1  0  0  0  0
 22 29  1  1  0  0  0
 23 28  1  0  0  0  0
 23 22  1  0  0  0  0
 24 23  2  0  0  0  0
 25 26  2  0  0  0  0
 25 24  1  0  0  0  0
 26 27  1  0  0  0  0
 27 28  2  0  0  0  0
 29 30  1  0  0  0  0
M  END
>  <minimizedAffinity>
-8.64211559

$$$$

 OpenBabel01072214533D

 30 32  0  0  1  0  0  0  0  0999 V2000
   32.0430   -1.2480   26.3060 C   0  0  2  0  0  0  0  0  0  0  0  0
   33.2200   -0.4160   26.7550 C   0  0  0  0  0  0  0  0  0  0  0  0
   34.0630   -0.8250   27.8350 C   0  0  0  0  0  0  0  0  0  0  0  0
   35.1190   -0.0080   28.2660 C   0  0  0  0  0  0  0  0  0  0  0  0
   35.3420    1.2240   27.6210 C   0  0  0  0  0  0  0  0  0  0  0  0
   34.5160    1.6360   26.5510 C   0  0  0  0  0  0  0  0  0  0  0  0
   33.4760    0.8130   26.1400 C   0  0  0  0  0  0  0  0  0  0  0  0
   36.3610    2.0090   28.0710 O   0  0  0  0  0  0  0  0  0  0  0  0
   37.1990    1.6430   27.7800 H   0  0  0  0  0  0  0  0  0  0  0  0
   32.2950   -2.0080   25.0780 C   0  0  0  0  0  0  0  0  0  0  0  0
   31.7600   -1.6150   23.8530 C   0  0  0  0  0  0  0  0  0  0  0  0
   32.0030   -2.2970   22.6940 C   0  0  0  0  0  0  0  0  0  0  0  0
   32.8130   -3.4200   22.7220 C   0  0  0  0  0  0  0  0  0  0  0  0
   33.3680   -3.8480   23.9410 C   0  0  0  0  0  0  0  0  0  0  0  0
   33.1090   -3.1480   25.0860 C   0  0  0  0  0  0  0  0  0  0  0  0
   33.1370   -4.1370   21.6060 O   0  0  0  0  0  0  0  0  0  0  0  0
   32.9090   -3.5810   20.3140 C   0  0  0  0  0  0  0  0  0  0  0  0
   34.2620   -3.3930   19.6840 C   0  0  0  0  0  0  0  0  0  0  0  0
   35.0300   -2.3300   20.2720 N   0  0  0  0  0  0  0  0  0  0  0  0
   36.3210   -2.8070   20.7700 C   0  0  0  0  0  0  0  0  0  0  0  0
   35.2850   -1.2930   19.2650 C   0  0  0  0  0  0  0  0  0  0  0  0
   30.8460   -1.2870   26.9620 C   0  0  1  0  0  0  0  0  0  0  0  0
   30.3030   -0.1500   27.7650 C   0  0  0  0  0  0  0  0  0  0  0  0
   29.5610    0.8740   27.1890 C   0  0  0  0  0  0  0  0  0  0  0  0
   29.0960    1.9590   27.9410 C   0  0  0  0  0  0  0  0  0  0  0  0
   29.3690    2.0400   29.2860 C   0  0  0  0  0  0  0  0  0  0  0  0
   30.1060    1.0370   29.8850 C   0  0  0  0  0  0  0  0  0  0  0  0
   30.5720   -0.0510   29.1470 C   0  0  0  0  0  0  0  0  0  0  0  0
   29.9410   -2.5010   26.9390 C   0  0  0  0  0  0  0  0  0  0  0  0
   28.6830   -2.2580   26.1510 C   0  0  0  0  0  0  0  0  0  0  0  0
  1  2  1  0  0  0  0
  1 22  1  6  0  0  0
  2  3  2  0  0  0  0
  3  4  1  0  0  0  0
  5  8  1  0  0  0  0
  5  4  2  0  0  0  0
  6  5  1  0  0  0  0
  7  6  2  0  0  0  0
  7  2  1  0  0  0  0
  9  8  1  0  0  0  0
 10 15  1  0  0  0  0
 10  1  1  0  0  0  0
 11 10  2  0  0  0  0
 12 13  2  0  0  0  0
 12 11  1  0  0  0  0
 13 14  1  0  0  0  0
 14 15  2  0  0  0  0
 16 13  1  0  0  0  0
 17 16  1  0  0  0  0
 18 19  1  0  0  0  0
 18 17  1  0  0  0  0
 19 20  1  0  0  0  0
 21 19  1  0  0  0  0
 22 29  1  6  0  0  0
 22 23  1  0  0  0  0
 23 28  1  0  0  0  0
 24 23  2  0  0  0  0
 24 25  1  0  0  0  0
 25 26  2  0  0  0  0
 26 27  1  0  0  0  0
 28 27  2  0  0  0  0
 30 29  1  0  0  0  0
M  END
>  <minimizedAffinity>
-8.26251316

$$$$

 OpenBabel01072214533D

 30 32  0  0  1  0  0  0  0  0999 V2000
   33.9800   -3.1840   20.3360 C   0  0  2  0  0  0  0  0  0  0  0  0
   35.2340   -2.4280   19.9710 C   0  0  0  0  0  0  0  0  0  0  0  0
   35.1860   -1.1000   19.4420 C   0  0  0  0  0  0  0  0  0  0  0  0
   36.3640   -0.4400   19.0620 C   0  0  0  0  0  0  0  0  0  0  0  0
   37.5990   -1.1000   19.2070 C   0  0  0  0  0  0  0  0  0  0  0  0
   37.6580   -2.4110   19.7320 C   0  0  0  0  0  0  0  0  0  0  0  0
   36.4800   -3.0480   20.1010 C   0  0  0  0  0  0  0  0  0  0  0  0
   38.7270   -0.4450   18.8130 O   0  0  0  0  0  0  0  0  0  0  0  0
   38.9500    0.2280   19.4590 H   0  0  0  0  0  0  0  0  0  0  0  0
   33.6860   -3.1760   21.7720 C   0  0  0  0  0  0  0  0  0  0  0  0
   34.4600   -3.8930   22.6800 C   0  0  0  0  0  0  0  0  0  0  0  0
   34.2170   -3.8780   24.0250 C   0  0  0  0  0  0  0  0  0  0  0  0
   33.1640   -3.1230   24.5180 C   0  0  0  0  0  0  0  0  0  0  0  0
   32.3590   -2.3890   23.6300 C   0  0  0  0  0  0  0  0  0  0  0  0
   32.6240   -2.4210   22.2900 C   0  0  0  0  0  0  0  0  0  0  0  0
   32.8750   -3.0240   25.8490 O   0  0  0  0  0  0  0  0  0  0  0  0
   31.8680   -2.1180   26.2910 C   0  0  0  0  0  0  0  0  0  0  0  0
   32.5860   -0.9230   26.8570 C   0  0  0  0  0  0  0  0  0  0  0  0
   32.3400   -0.7120   28.2580 N   0  0  0  0  0  0  0  0  0  0  0  0
   33.5870   -0.6200   29.0180 C   0  0  0  0  0  0  0  0  0  0  0  0
   31.5990    0.5410   28.4420 C   0  0  0  0  0  0  0  0  0  0  0  0
   33.1910   -3.8320   19.4290 C   0  0  1  0  0  0  0  0  0  0  0  0
   31.8690   -3.3150   18.9600 C   0  0  0  0  0  0  0  0  0  0  0  0
   31.7540   -2.4610   17.8690 C   0  0  0  0  0  0  0  0  0  0  0  0
   30.5170   -1.9450   17.4670 C   0  0  0  0  0  0  0  0  0  0  0  0
   29.3710   -2.2730   18.1520 C   0  0  0  0  0  0  0  0  0  0  0  0
   29.4560   -3.1190   19.2410 C   0  0  0  0  0  0  0  0  0  0  0  0
   30.6830   -3.6420   19.6500 C   0  0  0  0  0  0  0  0  0  0  0  0
   33.5840   -5.1530   18.8010 C   0  0  0  0  0  0  0  0  0  0  0  0
   34.2530   -6.0730   19.7840 C   0  0  0  0  0  0  0  0  0  0  0  0
  1 22  1  1  0  0  0
  1 10  1  0  0  0  0
  2  7  1  0  0  0  0
  2  1  1  0  0  0  0
  3  2  2  0  0  0  0
  4  5  2  0  0  0  0
  4  3  1  0  0  0  0
  5  6  1  0  0  0  0
  6  7  2  0  0  0  0
  8  5  1  0  0  0  0
  8  9  1  0  0  0  0
 10 15  2  0  0  0  0
 10 11  1  0  0  0  0
 11 12  2  0  0  0  0
 12 13  1  0  0  0  0
 13 16  1  0  0  0  0
 14 13  2  0  0  0  0
 15 14  1  0  0  0  0
 16 17  1  0  0  0  0
 17 18  1  0  0  0  0
 18 19  1  0  0  0  0
 19 21  1  0  0  0  0
 19 20  1  0  0  0  0
 22 29  1  6  0  0  0
 23 22  1  0  0  0  0
 23 28  2  0  0  0  0
 24 23  1  0  0  0  0
 25 24  2  0  0  0  0
 25 26  1  0  0  0  0
 26 27  2  0  0  0  0
 27 28  1  0  0  0  0
 29 30  1  0  0  0  0
M  END
>  <minimizedAffinity>
-7.96465683

$$$$

 OpenBabel01072214533D

 30 32  0  0  1  0  0  0  0  0999 V2000
   34.0280   -3.1250   20.3180 C   0  0  2  0  0  0  0  0  0  0  0  0
   33.7440   -3.1120   21.8000 C   0  0  0  0  0  0  0  0  0  0  0  0
   34.5150   -3.8870   22.7220 C   0  0  0  0  0  0  0  0  0  0  0  0
   34.1970   -3.8980   24.0880 C   0  0  0  0  0  0  0  0  0  0  0  0
   33.1050   -3.1360   24.5450 C   0  0  0  0  0  0  0  0  0  0  0  0
   32.3380   -2.3640   23.6430 C   0  0  0  0  0  0  0  0  0  0  0  0
   32.6690   -2.3670   22.2940 C   0  0  0  0  0  0  0  0  0  0  0  0
   32.8030   -3.1790   25.8730 O   0  0  0  0  0  0  0  0  0  0  0  0
   33.4420   -2.6580   26.3640 H   0  0  0  0  0  0  0  0  0  0  0  0
   35.2170   -2.3540   19.9420 C   0  0  0  0  0  0  0  0  0  0  0  0
   36.4990   -2.8870   20.0540 C   0  0  0  0  0  0  0  0  0  0  0  0
   37.6170   -2.1940   19.6850 C   0  0  0  0  0  0  0  0  0  0  0  0
   37.4860   -0.9120   19.1750 C   0  0  0  0  0  0  0  0  0  0  0  0
   36.2080   -0.3400   19.0500 C   0  0  0  0  0  0  0  0  0  0  0  0
   35.1060   -1.0560   19.4270 C   0  0  0  0  0  0  0  0  0  0  0  0
   38.5470   -0.1650   18.7490 O   0  0  0  0  0  0  0  0  0  0  0  0
   38.3540    0.8430   17.7610 C   0  0  0  0  0  0  0  0  0  0  0  0
   39.0470    0.3590   16.5160 C   0  0  0  0  0  0  0  0  0  0  0  0
   38.1660    0.1890   15.3930 N   0  0  0  0  0  0  0  0  0  0  0  0
   36.8840    0.8640   15.6040 C   0  0  0  0  0  0  0  0  0  0  0  0
   38.7870    0.7560   14.1910 C   0  0  0  0  0  0  0  0  0  0  0  0
   33.2530   -3.7730   19.4010 C   0  0  2  0  0  0  0  0  0  0  0  0
   31.9170   -3.2800   18.9470 C   0  0  0  0  0  0  0  0  0  0  0  0
   31.7740   -2.4300   17.8570 C   0  0  0  0  0  0  0  0  0  0  0  0
   30.5240   -1.9350   17.4690 C   0  0  0  0  0  0  0  0  0  0  0  0
   29.3920   -2.2830   18.1670 C   0  0  0  0  0  0  0  0  0  0  0  0
   29.5040   -3.1260   19.2550 C   0  0  0  0  0  0  0  0  0  0  0  0
   30.7440   -3.6270   19.6510 C   0  0  0  0  0  0  0  0  0  0  0  0
   33.6760   -5.0720   18.7450 C   0  0  0  0  0  0  0  0  0  0  0  0
   34.2440   -6.0510   19.7350 C   0  0  0  0  0  0  0  0  0  0  0  0
  1 22  1  6  0  0  0
  1  2  1  0  0  0  0
  2  7  2  0  0  0  0
  2  3  1  0  0  0  0
  3  4  2  0  0  0  0
  4  5  1  0  0  0  0
  5  8  1  0  0  0  0
  6  5  2  0  0  0  0
  7  6  1  0  0  0  0
  8  9  1  0  0  0  0
 10 11  1  0  0  0  0
 10  1  1  0  0  0  0
 12 11  2  0  0  0  0
 13 12  1  0  0  0  0
 14 13  2  0  0  0  0
 14 15  1  0  0  0  0
 15 10  2  0  0  0  0
 16 13  1  0  0  0  0
 17 16  1  0  0  0  0
 18 17  1  0  0  0  0
 19 20  1  0  0  0  0
 19 18  1  0  0  0  0
 21 19  1  0  0  0  0
 22 29  1  1  0  0  0
 23 22  1  0  0  0  0
 23 28  2  0  0  0  0
 24 23  1  0  0  0  0
 25 24  2  0  0  0  0
 25 26  1  0  0  0  0
 26 27  2  0  0  0  0
 27 28  1  0  0  0  0
 29 30  1  0  0  0  0
M  END
>  <minimizedAffinity>
-7.80695105

$$$$

 OpenBabel01072214533D

 30 32  0  0  0  0  0  0  0  0999 V2000
   31.2610   -1.2290   26.0500 C   0  0  0  0  0  0  0  0  0  0  0  0
   29.8540   -1.6570   26.3880 C   0  0  0  0  0  0  0  0  0  0  0  0
   28.7200   -1.1360   25.6900 C   0  0  0  0  0  0  0  0  0  0  0  0
   27.4200   -1.5100   26.0600 C   0  0  0  0  0  0  0  0  0  0  0  0
   27.2410   -2.4070   27.1290 C   0  0  0  0  0  0  0  0  0  0  0  0
   28.3550   -2.9310   27.8240 C   0  0  0  0  0  0  0  0  0  0  0  0
   29.6340   -2.5470   27.4430 C   0  0  0  0  0  0  0  0  0  0  0  0
   25.9670   -2.7400   27.4830 O   0  0  0  0  0  0  0  0  0  0  0  0
   25.6060   -3.3520   26.8380 H   0  0  0  0  0  0  0  0  0  0  0  0
   31.8910   -2.0510   25.0120 C   0  0  0  0  0  0  0  0  0  0  0  0
   31.7110   -1.7830   23.6570 C   0  0  0  0  0  0  0  0  0  0  0  0
   32.3100   -2.5220   22.6770 C   0  0  0  0  0  0  0  0  0  0  0  0
   33.1320   -3.5810   23.0280 C   0  0  0  0  0  0  0  0  0  0  0  0
   33.3350   -3.8830   24.3860 C   0  0  0  0  0  0  0  0  0  0  0  0
   32.7240   -3.1280   25.3470 C   0  0  0  0  0  0  0  0  0  0  0  0
   33.7970   -4.3460   22.1140 O   0  0  0  0  0  0  0  0  0  0  0  0
   35.2210   -4.3500   22.0910 C   0  0  0  0  0  0  0  0  0  0  0  0
   35.6280   -3.9310   20.7050 C   0  0  0  0  0  0  0  0  0  0  0  0
   36.0030   -2.5470   20.6060 N   0  0  0  0  0  0  0  0  0  0  0  0
   37.2950   -2.3820   19.9390 C   0  0  0  0  0  0  0  0  0  0  0  0
   34.9930   -1.8190   19.8290 C   0  0  0  0  0  0  0  0  0  0  0  0
   31.9060   -0.1890   26.6540 C   0  0  0  0  0  0  0  0  0  0  0  0
   31.2880    0.6670   27.7130 C   0  0  0  0  0  0  0  0  0  0  0  0
   31.7360    0.6540   29.0280 C   0  0  0  0  0  0  0  0  0  0  0  0
   31.1210    1.4230   30.0230 C   0  0  0  0  0  0  0  0  0  0  0  0
   30.0440    2.2200   29.7170 C   0  0  0  0  0  0  0  0  0  0  0  0
   29.5770    2.2520   28.4180 C   0  0  0  0  0  0  0  0  0  0  0  0
   30.1820    1.4920   27.4170 C   0  0  0  0  0  0  0  0  0  0  0  0
   33.3270    0.2050   26.3070 C   0  0  0  0  0  0  0  0  0  0  0  0
   33.4620    1.6820   26.0560 C   0  0  0  0  0  0  0  0  0  0  0  0
  1  2  1  0  0  0  0
  1 22  2  0  0  0  0
  2  7  2  0  0  0  0
  3  4  2  0  0  0  0
  3  2  1  0  0  0  0
  4  5  1  0  0  0  0
  5  8  1  0  0  0  0
  5  6  2  0  0  0  0
  7  6  1  0  0  0  0
  9  8  1  0  0  0  0
 10 15  1  0  0  0  0
 10  1  1  0  0  0  0
 11 10  2  0  0  0  0
 12 13  2  0  0  0  0
 12 11  1  0  0  0  0
 13 14  1  0  0  0  0
 14 15  2  0  0  0  0
 16 13  1  0  0  0  0
 17 16  1  0  0  0  0
 18 17  1  0  0  0  0
 19 18  1  0  0  0  0
 20 19  1  0  0  0  0
 21 19  1  0  0  0  0
 22 23  1  0  0  0  0
 23 24  1  0  0  0  0
 24 25  2  0  0  0  0
 26 25  1  0  0  0  0
 27 26  2  0  0  0  0
 28 23  2  0  0  0  0
 28 27  1  0  0  0  0
 29 22  1  0  0  0  0
 30 29  1  0  0  0  0
M  END
>  <minimizedAffinity>
-7.77622843

$$$$

 OpenBabel01072214533D

 30 32  0  0  0  0  0  0  0  0999 V2000
   33.3190   -2.8500   17.4090 C   0  0  0  0  0  0  0  0  0  0  0  0
   31.9650   -2.8100   18.0720 C   0  0  0  0  0  0  0  0  0  0  0  0
   31.7080   -3.4880   19.3040 C   0  0  0  0  0  0  0  0  0  0  0  0
   30.4260   -3.4770   19.8720 C   0  0  0  0  0  0  0  0  0  0  0  0
   29.3890   -2.7890   19.2140 C   0  0  0  0  0  0  0  0  0  0  0  0
   29.6310   -2.1130   17.9970 C   0  0  0  0  0  0  0  0  0  0  0  0
   30.9080   -2.1370   17.4510 C   0  0  0  0  0  0  0  0  0  0  0  0
   28.1470   -2.8100   19.7760 O   0  0  0  0  0  0  0  0  0  0  0  0
   28.1290   -2.2230   20.5340 H   0  0  0  0  0  0  0  0  0  0  0  0
   34.2350   -1.8050   17.8770 C   0  0  0  0  0  0  0  0  0  0  0  0
   34.4220   -0.6240   17.1620 C   0  0  0  0  0  0  0  0  0  0  0  0
   35.2510    0.3710   17.5960 C   0  0  0  0  0  0  0  0  0  0  0  0
   35.9360    0.2160   18.7900 C   0  0  0  0  0  0  0  0  0  0  0  0
   35.7740   -0.9640   19.5360 C   0  0  0  0  0  0  0  0  0  0  0  0
   34.9390   -1.9450   19.0810 C   0  0  0  0  0  0  0  0  0  0  0  0
   36.7550    1.1760   19.3130 O   0  0  0  0  0  0  0  0  0  0  0  0
   37.7910    1.7380   18.5130 C   0  0  0  0  0  0  0  0  0  0  0  0
   38.7400    0.6160   18.1910 C   0  0  0  0  0  0  0  0  0  0  0  0
   39.0490    0.5040   16.7910 N   0  0  0  0  0  0  0  0  0  0  0  0
   38.5280   -0.7380   16.2200 C   0  0  0  0  0  0  0  0  0  0  0  0
   38.4480    1.6280   16.0650 C   0  0  0  0  0  0  0  0  0  0  0  0
   33.6700   -3.7580   16.4510 C   0  0  0  0  0  0  0  0  0  0  0  0
   35.0650   -3.9280   15.9410 C   0  0  0  0  0  0  0  0  0  0  0  0
   36.0510   -4.5660   16.6840 C   0  0  0  0  0  0  0  0  0  0  0  0
   37.3660   -4.6790   16.2190 C   0  0  0  0  0  0  0  0  0  0  0  0
   37.7180   -4.1530   14.9990 C   0  0  0  0  0  0  0  0  0  0  0  0
   36.7590   -3.5130   14.2390 C   0  0  0  0  0  0  0  0  0  0  0  0
   35.4440   -3.3960   14.6910 C   0  0  0  0  0  0  0  0  0  0  0  0
   32.6690   -4.6920   15.8040 C   0  0  0  0  0  0  0  0  0  0  0  0
   32.6400   -6.0420   16.4660 C   0  0  0  0  0  0  0  0  0  0  0  0
  1 10  1  0  0  0  0
  1  2  1  0  0  0  0
  2  3  2  0  0  0  0
  3  4  1  0  0  0  0
  5  8  1  0  0  0  0
  5  4  2  0  0  0  0
  6  5  1  0  0  0  0
  7  6  2  0  0  0  0
  7  2  1  0  0  0  0
  8  9  1  0  0  0  0
 10 15  2  0  0  0  0
 11 12  2  0  0  0  0
 11 10  1  0  0  0  0
 12 13  1  0  0  0  0
 13 16  1  0  0  0  0
 13 14  2  0  0  0  0
 15 14  1  0  0  0  0
 17 16  1  0  0  0  0
 18 17  1  0  0  0  0
 19 18  1  0  0  0  0
 20 19  1  0  0  0  0
 21 19  1  0  0  0  0
 22  1  2  0  0  0  0
 23 22  1  0  0  0  0
 23 24  2  0  0  0  0
 25 24  1  0  0  0  0
 26 25  2  0  0  0  0
 27 28  2  0  0  0  0
 27 26  1  0  0  0  0
 28 23  1  0  0  0  0
 29 22  1  0  0  0  0
 29 30  1  0  0  0  0
M  END
>  <minimizedAffinity>
-7.7705636

$$$$

 OpenBabel01072214533D

 30 32  0  0  1  0  0  0  0  0999 V2000
   33.6010   -3.1280   17.7460 C   0  0  2  0  0  0  0  0  0  0  0  0
   32.1930   -3.0010   18.2730 C   0  0  0  0  0  0  0  0  0  0  0  0
   31.8020   -3.5700   19.5250 C   0  0  0  0  0  0  0  0  0  0  0  0
   30.4740   -3.4830   19.9660 C   0  0  0  0  0  0  0  0  0  0  0  0
   29.5240   -2.8270   19.1610 C   0  0  0  0  0  0  0  0  0  0  0  0
   29.8990   -2.2580   17.9230 C   0  0  0  0  0  0  0  0  0  0  0  0
   31.2200   -2.3560   17.5030 C   0  0  0  0  0  0  0  0  0  0  0  0
   28.2360   -2.7730   19.6020 O   0  0  0  0  0  0  0  0  0  0  0  0
   28.1650   -2.1260   20.3070 H   0  0  0  0  0  0  0  0  0  0  0  0
   34.3820   -1.8910   17.8530 C   0  0  0  0  0  0  0  0  0  0  0  0
   34.8770   -1.4430   19.0750 C   0  0  0  0  0  0  0  0  0  0  0  0
   35.6270   -0.3060   19.1900 C   0  0  0  0  0  0  0  0  0  0  0  0
   35.9160    0.4370   18.0570 C   0  0  0  0  0  0  0  0  0  0  0  0
   35.4300    0.0160   16.8070 C   0  0  0  0  0  0  0  0  0  0  0  0
   34.6820   -1.1240   16.7190 C   0  0  0  0  0  0  0  0  0  0  0  0
   36.6880    1.5630   18.0780 O   0  0  0  0  0  0  0  0  0  0  0  0
   37.8590    1.6370   17.2710 C   0  0  0  0  0  0  0  0  0  0  0  0
   38.8650    0.7040   17.8890 C   0  0  0  0  0  0  0  0  0  0  0  0
   39.3630   -0.2920   16.9810 N   0  0  0  0  0  0  0  0  0  0  0  0
   38.8010   -1.6130   17.2660 C   0  0  0  0  0  0  0  0  0  0  0  0
   39.0010    0.0710   15.6060 C   0  0  0  0  0  0  0  0  0  0  0  0
   34.1110   -4.2730   17.2050 C   0  0  1  0  0  0  0  0  0  0  0  0
   35.4390   -4.8480   17.5810 C   0  0  0  0  0  0  0  0  0  0  0  0
   35.6740   -5.4090   18.8300 C   0  0  0  0  0  0  0  0  0  0  0  0
   36.9340   -5.9020   19.1890 C   0  0  0  0  0  0  0  0  0  0  0  0
   37.9820   -5.8420   18.3020 C   0  0  0  0  0  0  0  0  0  0  0  0
   37.7770   -5.2890   17.0530 C   0  0  0  0  0  0  0  0  0  0  0  0
   36.5260   -4.7950   16.6820 C   0  0  0  0  0  0  0  0  0  0  0  0
   33.3720   -5.0820   16.1590 C   0  0  0  0  0  0  0  0  0  0  0  0
   33.3720   -4.4080   14.8150 C   0  0  0  0  0  0  0  0  0  0  0  0
  1 22  1  6  0  0  0
  1 10  1  0  0  0  0
  1  2  1  0  0  0  0
  2  3  2  0  0  0  0
  3  4  1  0  0  0  0
  5  8  1  0  0  0  0
  5  4  2  0  0  0  0
  6  5  1  0  0  0  0
  7  6  2  0  0  0  0
  7  2  1  0  0  0  0
  8  9  1  0  0  0  0
 10 11  2  0  0  0  0
 11 12  1  0  0  0  0
 13 16  1  0  0  0  0
 13 12  2  0  0  0  0
 14 13  1  0  0  0  0
 15 14  2  0  0  0  0
 15 10  1  0  0  0  0
 17 18  1  0  0  0  0
 17 16  1  0  0  0  0
 19 20  1  0  0  0  0
 19 18  1  0  0  0  0
 21 19  1  0  0  0  0
 22 29  1  1  0  0  0
 22 23  1  0  0  0  0
 23 24  2  0  0  0  0
 24 25  1  0  0  0  0
 26 25  2  0  0  0  0
 27 26  1  0  0  0  0
 28 27  2  0  0  0  0
 28 23  1  0  0  0  0
 30 29  1  0  0  0  0
M  END
>  <minimizedAffinity>
-7.72570467

$$$$
